TROTINFO	1
	Version:	1.0
END

FILES	3
	1	mech.dat
	2	therm.dat
	3	trans.TRANSP
END

ELEM	5
	C	1.20112000e+01
	H	1.00797000e+00
	O	1.59994000e+01
	N	1.40067000e+01
	AR	3.99480000e+01
END

SPEC	22
	H2
	H
	O2
	O
	OH
	H2O
	CO
	CO2
	N2
	NO
	AR
	CH4
	C2H2
	C2H4
	C2H6
	C3H8
	C4H10
	N-C7H16
	I-C8H18
	C12H24
	CH3OH
	C2H5OH
END

THERMO	22

H2
g
1           H   2
  ?     2.015940000000000e+00
2
  300.00   1000.00
   3.29812400e+00   8.24944200e-04  -8.14301500e-07  -9.47543400e-11
   4.13487200e-13  -1.01252100e+03  -3.29409400e+00   0.00000000e+00
  1000.00   5000.00
   2.99142227e+00   7.00064400e-04  -5.63382900e-08  -9.23157800e-12
   1.58275200e-15  -8.35033575e+02  -1.35510679e+00   0.00000000e+00
!121286 therm.dat

H
g
1           H   1
  ?     1.007970000000000e+00
2
  300.00   1000.00
   2.50000000e+00   0.00000000e+00   0.00000000e+00   0.00000000e+00
   0.00000000e+00   2.54716300e+04  -4.60117600e-01   0.00000000e+00
  1000.00   5000.00
   2.50000000e+00   0.00000000e+00   0.00000000e+00   0.00000000e+00
   0.00000000e+00   2.54716300e+04  -4.60117600e-01   0.00000000e+00
!120186 therm.dat

O2
g
1           O   2
  ?     3.199880000000000e+01
2
  300.00   1000.00
   3.21293600e+00   1.12748600e-03  -5.75615000e-07   1.31387700e-09
  -8.76855400e-13  -1.00524900e+03   6.03473800e+00   0.00000000e+00
  1000.00   5000.00
   3.69757672e+00   6.13519700e-04  -1.25884200e-07   1.77528100e-11
  -1.13643500e-15  -1.23392958e+03   3.18917106e+00   0.00000000e+00
!121386 therm.dat

O
g
1           O   1
  ?     1.599940000000000e+01
2
  300.00   1000.00
   2.94642900e+00  -1.63816600e-03   2.42103200e-06  -1.60284300e-09
   3.89069600e-13   2.91476400e+04   2.96399500e+00   0.00000000e+00
  1000.00   5000.00
   2.54206076e+00  -2.75506200e-05  -3.10280300e-09   4.55106700e-12
  -4.36805200e-16   2.92307982e+04   4.92030244e+00   0.00000000e+00
!120186 therm.dat

OH
g
2           O   1     H   1
  ?     1.700737000000000e+01
2
  200.00   1000.00
   4.12530561e+00  -3.22544939e-03   6.52764691e-06  -5.79853643e-09
   2.06237379e-12   3.34630913e+03  -6.90432960e-01   0.00000000e+00
  1000.00   6000.00
   2.86472885e+00   1.05650448e-03  -2.59082758e-07   3.05218674e-11
  -1.33195876e-15   3.68362875e+03   5.70164076e+00   0.00000000e+00
!S 9/01 therm.dat

H2O
g
2           H   2     O   1
  ?     1.801534000000000e+01
2
  300.00   1000.00
   3.38684200e+00   3.47498200e-03  -6.35469600e-06   6.96858100e-09
  -2.50658800e-12  -3.02081100e+04   2.59023300e+00   0.00000000e+00
  1000.00   5000.00
   2.67214600e+00   3.05629300e-03  -8.73026000e-07   1.20099600e-10
  -6.39161800e-15  -2.98992118e+04   6.86281009e+00   0.00000000e+00
! 20387 therm.dat

CO
g
2           C   1     O   1
  ?     2.801060000000000e+01
2
  300.00   1000.00
   3.26245200e+00   1.51194100e-03  -3.88175500e-06   5.58194400e-09
  -2.47495100e-12  -1.43105400e+04   4.84889700e+00   0.00000000e+00
  1000.00   5000.00
   3.02507765e+00   1.44268900e-03  -5.63082800e-07   1.01858100e-10
  -6.91095200e-15  -1.42683502e+04   6.10822213e+00   0.00000000e+00
!121286 therm.dat

CO2
g
2           C   1     O   2
  ?     4.401000000000000e+01
2
  300.00   1000.00
   2.27572500e+00   9.92207200e-03  -1.04091100e-05   6.86668700e-09
  -2.11728000e-12  -4.83731400e+04   1.01884900e+01   0.00000000e+00
  1000.00   5000.00
   4.45362662e+00   3.14016900e-03  -1.27841100e-06   2.39399700e-10
  -1.66903300e-14  -4.89669526e+04  -9.55419547e-01   0.00000000e+00
!121286 therm.dat

N2
g
1           N   2
  ?     2.801340000000000e+01
2
  300.00   1000.00
   3.29867700e+00   1.40824000e-03  -3.96322200e-06   5.64151500e-09
  -2.44485500e-12  -1.02090000e+03   3.95037200e+00   0.00000000e+00
  1000.00   5000.00
   2.92663704e+00   1.48797700e-03  -5.68476100e-07   1.00970400e-10
  -6.75335100e-15  -9.22794691e+02   5.98054580e+00   0.00000000e+00
!121286 therm.dat

NO
g
2           N   1     O   1
  ?     3.000610000000000e+01
2
  200.00   1000.00
   4.21847630e+00  -4.63897600e-03   1.10410220e-05  -9.33613540e-09
   2.80357700e-12   9.84462300e+03   2.28084640e+00   0.00000000e+00
  1000.00   6000.00
   3.26060602e+00   1.19110430e-03  -4.29170480e-07   6.94576690e-11
  -4.03360990e-15   9.92097448e+03   6.36930082e+00   0.00000000e+00
!RUS 78 therm.dat

AR
g
1           AR   1
  ?     3.994800000000001e+01
2
  300.00   1000.00
   2.50000000e+00   0.00000000e+00   0.00000000e+00   0.00000000e+00
   0.00000000e+00  -7.45375000e+02   4.36600100e+00   0.00000000e+00
  1000.00   5000.00
   2.50000000e+00   0.00000000e+00   0.00000000e+00   0.00000000e+00
   0.00000000e+00  -7.45375000e+02   4.36600100e+00   0.00000000e+00
!120186 therm.dat

CH4
g
2           C   1     H   4
  ?     1.604308000000000e+01
2
  200.00   1000.00
   5.14911468e+00  -1.36622009e-02   4.91453921e-05  -4.84246767e-08
   1.66603441e-11  -1.02465983e+04  -4.63848842e+00   0.00000000e+00
  1000.00   6000.00
   1.65326225e+00   1.00263099e-02  -3.31661238e-06   5.36483138e-10
  -3.14696758e-14  -1.00095936e+04   9.90506294e+00   0.00000000e+00
!g 8/99 therm.dat

C2H2
g
2           C   2     H   2
  ?     2.603834000000001e+01
2
  200.00   1000.00
   8.08681094e-01   2.33615629e-02  -3.55171815e-05   2.80152437e-08
  -8.50072974e-12   2.64289807e+04   1.39397051e+01   0.00000000e+00
  1000.00   3500.00
   4.14756966e+00   5.96166664e-03  -2.37294852e-06   4.67412171e-10
  -3.61235213e-14   2.59359992e+04  -1.23028129e+00   0.00000000e+00
!L 1/91 therm.dat

C2H4
g
2           C   2     H   4
  ?     2.805428000000000e+01
2
  200.00   1000.00
   3.95920148e+00  -7.57052247e-03   5.70990292e-05  -6.91588753e-08
   2.69884373e-11   5.08977593e+03   4.09733096e+00   0.00000000e+00
  1000.00   3500.00
   2.03611104e+00   1.46454151e-02  -6.71077915e-06   1.47222923e-09
  -1.25706061e-13   4.93988624e+03   1.03053700e+01   0.00000000e+00
!L 1/91 therm.dat

C2H6
g
2           C   2     H   6
  ?     3.007022000000000e+01
2
  200.00   1000.00
   4.29142492e+00  -5.50154270e-03   5.99438288e-05  -7.08466285e-08
   2.68685771e-11  -1.15222055e+04   2.66682316e+00   0.00000000e+00
  1000.00   3500.00
   1.07188142e+00   2.16852677e-02  -1.00256067e-05   2.21412001e-09
  -1.90002890e-13  -1.14263932e+04   1.51156112e+01   0.00000000e+00
!L 8/88 therm.dat

C3H8
g
2           C   3     H   8
  ?     4.409736000000000e+01
2
  300.00   1000.00
   9.33553810e-01   2.64245790e-02   6.10597270e-06  -2.19774990e-08
   9.51492530e-12  -1.39585200e+04   1.92016910e+01   0.00000000e+00
  1000.00   5000.00
   7.53422340e+00   1.88722390e-02  -6.27184910e-06   9.14756490e-10
  -4.78380690e-14  -1.64675902e+04  -1.78929293e+01   0.00000000e+00
!L 4/85 therm.dat

C4H10
g
2           C   4     H   10
  ?     5.812450000000001e+01
2
  300.00   1392.00
  -4.55756824e-01   4.80323389e-02  -2.65497552e-05   6.92544700e-09
  -6.38317504e-13  -1.68960904e+04   2.64870966e+01   0.00000000e+00
  1392.00   5000.00
   1.24941733e+01   2.17726258e-02  -7.44272215e-06   1.15487023e-09
  -6.69712949e-14  -2.18405595e+04  -4.45570144e+01   0.00000000e+00
! THERM therm.dat

N-C7H16
g
2           C   7     H   16
  ?     1.002059200000000e+02
2
  300.00   1000.00
  -1.26836187e+00   8.54355820e-02  -5.25346786e-05   1.62945721e-08
  -2.02394925e-12  -2.56586565e+04   3.53732912e+01   0.00000000e+00
  1000.00   5000.00
   5.14079221e+00   6.53078671e-02  -2.94827624e-05   4.93726726e-09
   0.00000000e+00  -2.72533888e+04   2.98196105e+00   0.00000000e+00
!unknown therm.dat

I-C8H18
g
2           C   8     H   18
  ?     1.142330600000000e+02
2
  300.00   1000.00
  -4.20868893e+00   1.11440581e-01  -7.91346582e-05   2.92406242e-08
  -4.43743191e-12  -2.99446875e+04   4.49521701e+01   0.00000000e+00
  1000.00   5000.00
   8.11399794e+00   7.18938145e-02  -3.25717545e-05   5.46436799e-09
   0.00000000e+00  -3.29583813e+04  -1.70885598e+01   0.00000000e+00
!unknown therm.dat

C12H24
g
2           H   24     C   12
  ?     1.683256800000000e+02
2
  300.00   1000.00
  -2.43874931e+00   1.40512846e-01  -9.10032977e-05   3.00308587e-08
  -4.00790141e-12  -2.61556835e+04   5.07457348e+01   0.00000000e+00
  1000.00   5000.00
   9.89916191e+00   1.01613270e-01  -4.62099791e-05   7.79130314e-09
   0.00000000e+00  -2.92166043e+04  -1.15674101e+01   0.00000000e+00
!unknown therm.dat

CH3OH
g
3           C   1     H   4     O   1
  ?     3.204248000000000e+01
2
  200.00   1000.00
   5.65851051e+00  -1.62983419e-02   6.91938156e-05  -7.58372926e-08
   2.80427550e-11  -2.56119736e+04  -8.97330508e-01   0.00000000e+00
  1000.00   6000.00
   3.52726795e+00   1.03178783e-02  -3.62892944e-06   5.77448016e-10
  -3.42182632e-14  -2.60028833e+04   5.16758696e+00   0.00000000e+00
!T06/02 therm.dat

C2H5OH
g
3           C   2     H   6     O   1
  ?     4.606962000000001e+01
2
  200.00   1000.00
   4.85869570e+00  -3.74017260e-03   6.95553780e-05  -8.86547960e-08
   3.51688350e-11  -2.99961320e+04   4.80185450e+00   0.00000000e+00
  1000.00   6000.00
   6.56243721e+00   1.52042220e-02  -5.38967950e-06   8.62250110e-10
  -5.12897870e-14  -3.15256215e+04  -9.47302493e+00   0.00000000e+00
!L 8/88 therm.dat
END

CRIT	0
END

TRANSPORT	22
	H2		1	38.000	2.920	0.000	0.790	280.000
	H		0	145.000	2.050	0.000	0.000	0.000
	O2		1	107.400	3.458	0.000	1.600	3.800
	O		0	80.000	2.750	0.000	0.000	0.000
	OH		1	80.000	2.750	0.000	0.000	0.000
	H2O		2	572.400	2.605	1.844	0.000	4.000
	CO		1	98.100	3.650	0.000	1.950	1.800
	CO2		1	244.000	3.763	0.000	2.650	2.100
	N2		1	97.530	3.621	0.000	1.760	4.000
	NO		1	97.530	3.621	0.000	1.760	4.000
	AR		0	136.500	3.330	0.000	0.000	0.000
	CH4		2	141.400	3.746	0.000	2.600	13.000
	C2H2		1	209.000	4.100	0.000	0.000	2.500
	C2H4		2	280.800	3.971	0.000	0.000	1.500
	C2H6		2	252.300	4.302	0.000	0.000	1.500
	C3H8		2	266.800	4.982	0.000	0.000	1.000
	C4H10		2	350.900	5.206	0.000	0.000	1.000
	N-C7H16		2	459.600	6.253	0.000	0.000	1.000
	I-C8H18		2	458.500	6.414	0.000	0.000	0.000
	C12H24		2	787.050	6.930	0.000	22.520	1.000
	CH3OH		2	481.800	3.626	0.000	0.000	1.000
	C2H5OH		2	470.600	4.410	0.000	0.000	1.500
END


REAC	0
END


VISCOSITY	22
	H2	4	-1.6764491932e+01	 1.3108251489e+00	-1.0006750848e-01	 4.9932269126e-03
	H	4	-2.3109196653e+01	 3.8034405328e+00	-4.1619771506e-01	 1.8266182365e-02
	O2	4	-2.1091577299e+01	 3.3800987342e+00	-3.7197264005e-01	 1.6832763823e-02
	O	4	-1.9484519086e+01	 2.8481003358e+00	-3.0795568889e-01	 1.4308775217e-02
	OH	4	-1.9453971433e+01	 2.8481003930e+00	-3.0795569747e-01	 1.4308775644e-02
	H2O	4	-1.5174746208e+01	-4.8858922788e-01	 3.1538028251e-01	-2.0301778485e-02
	CO	4	-2.0820638135e+01	 3.2265349754e+00	-3.5415869509e-01	 1.6161603990e-02
	CO2	4	-2.3716630908e+01	 4.0102355975e+00	-4.0981343613e-01	 1.6589390864e-02
	N2	4	-2.0775458014e+01	 3.2163178363e+00	-3.5295132597e-01	 1.6115045522e-02
	NO	4	-2.0741099252e+01	 3.2163178825e+00	-3.5295133290e-01	 1.6115045866e-02
	AR	4	-2.1992911157e+01	 3.7305996560e+00	-4.0936452395e-01	 1.8085525624e-02
	CH4	4	-2.2830135869e+01	 3.7739904272e+00	-4.1349490875e-01	 1.8198223241e-02
	C2H2	4	-2.3984496975e+01	 4.0513221084e+00	-4.2720509346e-01	 1.7842058286e-02
	C2H4	4	-2.3939463684e+01	 3.8544291573e+00	-3.7667049334e-01	 1.4624112761e-02
	C2H6	4	-2.4174603404e+01	 3.9848309622e+00	-4.0362419432e-01	 1.6202385447e-02
	C3H8	4	-2.4241648994e+01	 3.9267227243e+00	-3.9099966697e-01	 1.5447105522e-02
	C4H10	4	-2.3167372639e+01	 3.2637609812e+00	-2.7456206223e-01	 9.1640435103e-03
	N-C7H16	4	-2.0028406304e+01	 1.6443127093e+00	-2.2190547426e-02	-3.4911020230e-03
	I-C8H18	4	-2.0056423151e+01	 1.6646916666e+00	-2.5279732349e-02	-3.3390726386e-03
	C12H24	4	-7.6343507466e-01	-6.9863073374e+00	 1.2361421200e+00	-6.3708302647e-02
	CH3OH	4	-1.8606594036e+01	 1.2167449260e+00	 4.2338542831e-02	-6.6571516788e-03
	C2H5OH	4	-1.9281233167e+01	 1.4363041083e+00	 9.2671939468e-03	-5.0367478396e-03
END


CONDUCTIVITY	22
	H2	4	-9.3988976394e+00	 2.7143182396e+00	-3.5614992287e-01	 2.0627788367e-02
	H	4	-1.2769626350e+01	 3.8034405416e+00	-4.1619771638e-01	 1.8266182431e-02
	O2	4	-1.0549274188e+01	 1.5845572282e+00	-7.5372244893e-02	 1.7861829273e-03
	O	4	-1.1909561686e+01	 2.8481003847e+00	-3.0795569623e-01	 1.4308775582e-02
	OH	4	-5.2363389386e+00	 2.2901843176e-01	 2.6826811257e-02	 1.2201954272e-03
	H2O	4	 7.9425087148e-01	-4.2231737347e+00	 8.6018587171e-01	-4.4866934283e-02
	CO	4	-3.1190751069e+00	-1.6598094216e+00	 3.8974638430e-01	-2.0346909891e-02
	CO2	4	-1.7727987239e+01	 3.6213340788e+00	-2.3957627818e-01	 4.4673691475e-03
	N2	4	-3.2756703702e+00	-1.4998231724e+00	 3.5516180364e-01	-1.8167744151e-02
	NO	4	-1.3577306928e+00	-2.4208616032e+00	 5.0165573697e-01	-2.5898180042e-02
	AR	4	-1.5332981131e+01	 3.7305996992e+00	-4.0936453044e-01	 1.8085525947e-02
	CH4	4	 1.1903194346e+01	-9.3915360398e+00	 1.6765973073e+00	-8.7334569706e-02
	C2H2	4	-2.3344798893e+01	 6.3828091805e+00	-6.6927894276e-01	 2.6899474346e-02
	C2H4	4	-1.1088718906e+01	-2.4470461323e-01	 4.5929154562e-01	-3.3976081288e-02
	C2H6	4	-7.7276096604e+00	-1.8138229070e+00	 7.0239247772e-01	-4.6205574905e-02
	C3H8	4	-2.3240241715e+01	 4.9520152447e+00	-2.8553776133e-01	 1.6202835755e-03
	C4H10	4	-2.2374179139e+01	 4.3573214060e+00	-1.7427782856e-01	-4.7495716911e-03
	N-C7H16	4	-2.4650844192e+01	 5.2270107165e+00	-3.0011641990e-01	 1.5228296189e-03
	I-C8H18	4	-3.0305082492e+01	 7.6895308428e+00	-6.5303802890e-01	 1.8227905869e-02
	C12H24	4	-1.2220524583e+01	-4.6442080136e-01	 5.3733166456e-01	-3.8780691089e-02
	CH3OH	4	 2.5656217905e+00	-6.4600055794e+00	 1.3763931045e+00	-7.8214148114e-02
	C2H5OH	4	-1.3762318166e+01	 5.9373740093e-01	 3.6232118022e-01	-2.9995100120e-02
END


DIFFUSIVITIES	22
	H2	H2	4	-1.9759811024e+01	 2.3150629727e+00	-9.6989989435e-02	 4.7408036935e-03
	H	H2	4	-2.2199042056e+01	 3.4772392926e+00	-2.5371551489e-01	 1.1754249280e-02
	H	H	4	-2.4602977177e+01	 4.4760848102e+00	-3.6943730749e-01	 1.6133532565e-02
	O2	H2	4	-2.2521119383e+01	 3.2152249784e+00	-2.1986697674e-01	 1.0305577632e-02
	O2	H	4	-2.4919324485e+01	 4.2886926040e+00	-3.5020835554e-01	 1.5521955570e-02
	O2	O2	4	-2.6127310180e+01	 4.0759883743e+00	-3.2653111122e-01	 1.4671994112e-02
	O	H2	4	-2.1582719153e+01	 2.9545351036e+00	-1.8526175132e-01	 8.7823053987e-03
	O	H	4	-2.3996421105e+01	 4.0801838082e+00	-3.2701236371e-01	 1.4689962785e-02
	O	O2	4	-2.5048942922e+01	 3.8478902979e+00	-2.9967678083e-01	 1.3636416600e-02
	O	O	4	-2.3986996126e+01	 3.6050151902e+00	-2.6983875978e-01	 1.2427207904e-02
	OH	H2	4	-2.1586046165e+01	 2.9545350852e+00	-1.8526174855e-01	 8.7823052612e-03
	OH	H	4	-2.3998180490e+01	 4.0801838192e+00	-3.2701236535e-01	 1.4689962867e-02
	OH	O2	4	-2.5069099352e+01	 3.8478902979e+00	-2.9967678084e-01	 1.3636416601e-02
	OH	O	4	-2.4002036648e+01	 3.6050151394e+00	-2.6983875215e-01	 1.2427207524e-02
	OH	OH	4	-2.4017543823e+01	 3.6050151529e+00	-2.6983875419e-01	 1.2427207626e-02
	H2O	H2	4	-2.5904942097e+01	 4.4954014763e+00	-3.7129371711e-01	 1.6186028484e-02
	H2O	H	4	-2.6746991276e+01	 4.7205274100e+00	-3.6111172961e-01	 1.4126212405e-02
	H2O	O2	4	-2.8455866368e+01	 4.7994354645e+00	-3.8283571111e-01	 1.5530198741e-02
	H2O	O	4	-2.7792386544e+01	 4.7854898136e+00	-3.9063790979e-01	 1.6259480110e-02
	H2O	OH	4	-2.7808332890e+01	 4.7854897868e+00	-3.9063790577e-01	 1.6259479910e-02
	H2O	H2O	4	-2.3072332161e+01	 1.7506052995e+00	 1.3179535804e-01	-1.1274889492e-02
	CO	H2	4	-2.2367535272e+01	 3.1352085128e+00	-2.0933810734e-01	 9.8462744889e-03
	CO	H	4	-2.4794612020e+01	 4.2269100782e+00	-3.4349659860e-01	 1.5289050924e-02
	CO	O2	4	-2.5947159898e+01	 4.0076753726e+00	-3.1862598052e-01	 1.4373555200e-02
	CO	O	4	-2.4880113614e+01	 3.7745798404e+00	-2.9079173575e-01	 1.3281872389e-02
	CO	OH	4	-2.4899338990e+01	 3.7745798528e+00	-2.9079173761e-01	 1.3281872481e-02
	CO	H2O	4	-2.8430454912e+01	 4.8034305717e+00	-3.8647198327e-01	 1.5814151334e-02
	CO	CO	4	-2.5765586310e+01	 3.9376843115e+00	-3.1040023360e-01	 1.4057032059e-02
	CO2	H2	4	-2.4513537150e+01	 3.9084649684e+00	-3.0693097951e-01	 1.3921888555e-02
	CO2	H	4	-2.6538488848e+01	 4.7188327845e+00	-3.8924036904e-01	 1.6497971954e-02
	CO2	O2	4	-2.7946481860e+01	 4.5935212451e+00	-3.8018310796e-01	 1.6407431297e-02
	CO2	O	4	-2.6957238480e+01	 4.4324182661e+00	-3.6513981608e-01	 1.6006401049e-02
	CO2	OH	4	-2.6979457628e+01	 4.4324182889e+00	-3.6513981951e-01	 1.6006401220e-02
	CO2	H2O	4	-2.8021330989e+01	 4.2423494094e+00	-2.7396817330e-01	 9.3459007858e-03
	CO2	CO	4	-2.7795242054e+01	 4.5475435800e+00	-3.7614379143e-01	 1.6314247004e-02
	CO2	CO2	4	-2.9191279935e+01	 4.8017738163e+00	-3.8426005262e-01	 1.5637307176e-02
	N2	H2	4	-2.2345296925e+01	 3.1300521596e+00	-2.0865671866e-01	 9.8164199573e-03
	N2	H	4	-2.4772004212e+01	 4.2228602963e+00	-3.4305146135e-01	 1.5273347017e-02
	N2	O2	4	-2.5926030439e+01	 4.0032213850e+00	-3.1810621242e-01	 1.4353726932e-02
	N2	O	4	-2.4857712460e+01	 3.7698181690e+00	-2.9021081560e-01	 1.3258516216e-02
	N2	OH	4	-2.4876938574e+01	 3.7698181933e+00	-2.9021081925e-01	 1.3258516397e-02
	N2	H2O	4	-2.8416563821e+01	 4.8034173506e+00	-3.8666576921e-01	 1.5830487907e-02
	N2	CO	4	-2.5744540620e+01	 3.9331267228e+00	-3.0986043006e-01	 1.4036065715e-02
	N2	CO2	4	-2.7776665195e+01	 4.5444708433e+00	-3.7586522172e-01	 1.6307297852e-02
	N2	N2	4	-2.5723455391e+01	 3.9285627507e+00	-3.0931937597e-01	 1.4015027813e-02
	NO	H2	4	-2.2347531046e+01	 3.1300521657e+00	-2.0865671958e-01	 9.8164200030e-03
	NO	H	4	-2.4773158791e+01	 4.2228602844e+00	-3.4305145956e-01	 1.5273346928e-02
	NO	O2	4	-2.5944056484e+01	 4.0032213629e+00	-3.1810620909e-01	 1.4353726766e-02
	NO	O	4	-2.4869931238e+01	 3.7698182329e+00	-2.9021082519e-01	 1.3258516692e-02
	NO	OH	4	-2.4889642444e+01	 3.7698182456e+00	-2.9021082709e-01	 1.3258516787e-02
	NO	H2O	4	-2.8429731850e+01	 4.8034173332e+00	-3.8666576660e-01	 1.5830487777e-02
	NO	CO	4	-2.5761424135e+01	 3.9331267304e+00	-3.0986043120e-01	 1.4036065772e-02
	NO	CO2	4	-2.7797378216e+01	 4.5444708174e+00	-3.7586521783e-01	 1.6307297659e-02
	NO	N2	4	-2.5740339677e+01	 3.9285627184e+00	-3.0931937112e-01	 1.4015027572e-02
	NO	NO	4	-2.5757814198e+01	 3.9285627251e+00	-3.0931937213e-01	 1.4015027622e-02
	AR	H2	4	-2.3041911160e+01	 3.4250482569e+00	-2.4705425165e-01	 1.1472791092e-02
	AR	H	4	-2.5362641449e+01	 4.4407126029e+00	-3.6596614987e-01	 1.6031390779e-02
	AR	O2	4	-2.6660385621e+01	 4.2477304878e+00	-3.4577531643e-01	 1.5368961522e-02
	AR	O	4	-2.5580243447e+01	 4.0348873550e+00	-3.2179018257e-01	 1.4493731542e-02
	AR	OH	4	-2.5601863289e+01	 4.0348873871e+00	-3.2179018738e-01	 1.4493731781e-02
	AR	H2O	4	-2.8522590561e+01	 4.7455674009e+00	-3.6682448672e-01	 1.4472697036e-02
	AR	CO	4	-2.6484854065e+01	 4.1845063813e+00	-3.3880627061e-01	 1.5122135095e-02
	AR	CO2	4	-2.8372697818e+01	 4.6973153618e+00	-3.8800137470e-01	 1.6508911470e-02
	AR	N2	4	-2.6464014843e+01	 4.1803672125e+00	-3.3834502984e-01	 1.5105554678e-02
	AR	NO	4	-2.6483924058e+01	 4.1803672396e+00	-3.3834503390e-01	 1.5105554880e-02
	AR	AR	4	-2.7175240329e+01	 4.4041040746e+00	-3.6228642086e-01	 1.5918363569e-02
	CH4	H2	4	-2.3218044989e+01	 3.4555587403e+00	-2.5095351886e-01	 1.1637778380e-02
	CH4	H	4	-2.5562664584e+01	 4.4615178131e+00	-3.6801855912e-01	 1.6092369133e-02
	CH4	O2	4	-2.6599491808e+01	 4.2717661765e+00	-3.4838484690e-01	 1.5459435633e-02
	CH4	O	4	-2.5613138746e+01	 4.0614283428e+00	-3.2485704420e-01	 1.4609303488e-02
	CH4	OH	4	-2.5628200165e+01	 4.0614283292e+00	-3.2485704215e-01	 1.4609303386e-02
	CH4	H2O	4	-2.8465082943e+01	 4.7315688530e+00	-3.6357964857e-01	 1.4274710600e-02
	CH4	CO	4	-2.6436864305e+01	 4.2093754055e+00	-3.4156489870e-01	 1.5220689299e-02
	CH4	CO2	4	-2.8252281968e+01	 4.7101247575e+00	-3.8876327261e-01	 1.6504436739e-02
	CH4	N2	4	-2.6416560090e+01	 4.2052879340e+00	-3.4111299425e-01	 1.5204617839e-02
	CH4	NO	4	-2.6428800258e+01	 4.2052879602e+00	-3.4111299819e-01	 1.5204618035e-02
	CH4	AR	4	-2.7088324557e+01	 4.4256235807e+00	-3.6445958710e-01	 1.5985652849e-02
	CH4	CH4	4	-2.7094400527e+01	 4.4467304158e+00	-3.6656284022e-01	 1.6049283362e-02
	C2H2	H2	4	-2.4245174756e+01	 3.7842923994e+00	-2.9197524577e-01	 1.3329391271e-02
	C2H2	H	4	-2.6400069859e+01	 4.6597742959e+00	-3.8545197709e-01	 1.6495517428e-02
	C2H2	O2	4	-2.7625992473e+01	 4.5129266862e+00	-3.7295153969e-01	 1.6231442436e-02
	C2H2	O	4	-2.6661147742e+01	 4.3355719888e+00	-3.5519325156e-01	 1.5689600803e-02
	C2H2	OH	4	-2.6679848178e+01	 4.3355720121e+00	-3.5519325507e-01	 1.5689600978e-02
	C2H2	H2O	4	-2.8356418611e+01	 4.4420355647e+00	-3.0815113603e-01	 1.1157841467e-02
	C2H2	CO	4	-2.7471334152e+01	 4.4615149527e+00	-3.6801827835e-01	 1.6092360864e-02
	C2H2	CO2	4	-2.9003497770e+01	 4.7992958549e+00	-3.8909044626e-01	 1.6055974989e-02
	C2H2	N2	4	-2.7452498599e+01	 4.4581068672e+00	-3.6768412794e-01	 1.6082544155e-02
	C2H2	NO	4	-2.7468755956e+01	 4.4581069121e+00	-3.6768413468e-01	 1.6082544489e-02
	C2H2	AR	4	-2.8070702799e+01	 4.6334239563e+00	-3.8345183296e-01	 1.6468471264e-02
	C2H2	CH4	4	-2.8008026460e+01	 4.6490207298e+00	-3.8465341838e-01	 1.6485961890e-02
	C2H2	C2H2	4	-2.8803547120e+01	 4.7766432425e+00	-3.9089423613e-01	 1.6328185855e-02
	C2H4	H2	4	-2.4877320754e+01	 4.0173439762e+00	-3.1975249455e-01	 1.4416446066e-02
	C2H4	H	4	-2.6799840060e+01	 4.7605529477e+00	-3.9083235536e-01	 1.6408850969e-02
	C2H4	O2	4	-2.8137234123e+01	 4.6577174298e+00	-3.8530126878e-01	 1.6493860059e-02
	C2H4	O	4	-2.7221266854e+01	 4.5133535263e+00	-3.7299158555e-01	 1.6232520742e-02
	C2H4	OH	4	-2.7240503244e+01	 4.5133535002e+00	-3.7299158164e-01	 1.6232520548e-02
	C2H4	H2O	4	-2.7593686202e+01	 4.0078146050e+00	-2.3533084444e-01	 7.3433866621e-03
	C2H4	CO	4	-2.8002443430e+01	 4.6173591062e+00	-3.8216673587e-01	 1.6446482927e-02
	C2H4	CO2	4	-2.9191831327e+01	 4.7834488735e+00	-3.7682578610e-01	 1.5110797690e-02
	C2H4	N2	4	-2.7984713331e+01	 4.6146323797e+00	-3.8194426205e-01	 1.6442386510e-02
	C2H4	NO	4	-2.8001610220e+01	 4.6146323847e+00	-3.8194426280e-01	 1.6442386547e-02
	C2H4	AR	4	-2.8518255867e+01	 4.7441051695e+00	-3.9037807517e-01	 1.6458517275e-02
	C2H4	CH4	4	-2.8437878582e+01	 4.7539923660e+00	-3.9068701630e-01	 1.6431668298e-02
	C2H4	C2H2	4	-2.9077200673e+01	 4.8024874085e+00	-3.8484850373e-01	 1.5682901352e-02
	C2H4	C2H4	4	-2.9165847724e+01	 4.7421100883e+00	-3.6600902094e-01	 1.4422620061e-02
	C2H6	H2	4	-2.4734001836e+01	 3.9347367310e+00	-3.1005117690e-01	 1.4043477081e-02
	C2H6	H	4	-2.6759852430e+01	 4.7298556249e+00	-3.8978757705e-01	 1.6485036403e-02
	C2H6	O2	4	-2.8060307663e+01	 4.6096221622e+00	-3.8153237906e-01	 1.6434600105e-02
	C2H6	O	4	-2.7123795597e+01	 4.4523201707e+00	-3.6711489640e-01	 1.6065719575e-02
	C2H6	OH	4	-2.7143521654e+01	 4.4523201519e+00	-3.6711489357e-01	 1.6065719434e-02
	C2H6	H2O	4	-2.8033026573e+01	 4.1914212391e+00	-2.6546950498e-01	 8.9020331917e-03
	C2H6	CO	4	-2.7914069216e+01	 4.5649185336e+00	-3.7769978223e-01	 1.6351934029e-02
	C2H6	CO2	4	-2.9246443404e+01	 4.7993105049e+00	-3.8277050668e-01	 1.5525390757e-02
	C2H6	N2	4	-2.7896162718e+01	 4.5619243110e+00	-3.7743404256e-01	 1.6345640712e-02
	C2H6	NO	4	-2.7913655506e+01	 4.5619242901e+00	-3.7743403942e-01	 1.6345640556e-02
	C2H6	AR	4	-2.8470963416e+01	 4.7094814401e+00	-3.8872663310e-01	 1.6504797592e-02
	C2H6	CH4	4	-2.8382689522e+01	 4.7216317529e+00	-3.8938573227e-01	 1.6495224777e-02
	C2H6	C2H2	4	-2.9087960717e+01	 4.8016570477e+00	-3.8831947569e-01	 1.5978676940e-02
	C2H6	C2H4	4	-2.9253486032e+01	 4.7758298578e+00	-3.7457597978e-01	 1.4962474030e-02
	C2H6	C2H6	4	-2.9308186533e+01	 4.7956918387e+00	-3.8110999572e-01	 1.5405270194e-02
	C3H8	H2	4	-2.5049419880e+01	 3.9781509752e+00	-3.1517104472e-01	 1.4241308347e-02
	C3H8	H	4	-2.7047617626e+01	 4.7467787675e+00	-3.9047093649e-01	 1.6452038439e-02
	C3H8	O2	4	-2.8414312756e+01	 4.6354021311e+00	-3.8360687495e-01	 1.6470910861e-02
	C3H8	O	4	-2.7474870963e+01	 4.4847023336e+00	-3.7026910793e-01	 1.6157255407e-02
	C3H8	OH	4	-2.7497102135e+01	 4.4847023638e+00	-3.7026911247e-01	 1.6157255632e-02
	C3H8	H2O	4	-2.8122416852e+01	 4.0996085632e+00	-2.5031101652e-01	 8.1153581083e-03
	C3H8	CO	4	-2.8262016430e+01	 4.5929141709e+00	-3.8013150650e-01	 1.6406345957e-02
	C3H8	CO2	4	-2.9542632666e+01	 4.7925965450e+00	-3.7989778257e-01	 1.5319990341e-02
	C3H8	N2	4	-2.8244942255e+01	 4.5900564466e+00	-3.7988792616e-01	 1.6401180532e-02
	C3H8	NO	4	-2.8265671662e+01	 4.5900564559e+00	-3.7988792757e-01	 1.6401180602e-02
	C3H8	AR	4	-2.8824958831e+01	 4.7284016649e+00	-3.8971944383e-01	 1.6487081719e-02
	C3H8	CH4	4	-2.8684427466e+01	 4.7394007458e+00	-3.9019990395e-01	 1.6468678877e-02
	C3H8	C2H2	4	-2.9371202670e+01	 4.8034109308e+00	-3.8670393155e-01	 1.5833725403e-02
	C3H8	C2H4	4	-2.9504631225e+01	 4.7600600010e+00	-3.7037150041e-01	 1.4693401068e-02
	C3H8	C2H6	4	-2.9572092674e+01	 4.7869490675e+00	-3.7793792371e-01	 1.5185529657e-02
	C3H8	C3H8	4	-2.9835691563e+01	 4.7746427751e+00	-3.7424150376e-01	 1.4940711272e-02
	C4H10	H2	4	-2.5712666536e+01	 4.1815065125e+00	-3.3847204375e-01	 1.5110123317e-02
	C4H10	H	4	-2.7438593057e+01	 4.7991014186e+00	-3.8913755191e-01	 1.6060965316e-02
	C4H10	O2	4	-2.8949306430e+01	 4.7390900155e+00	-3.9018751558e-01	 1.6469298089e-02
	C4H10	O	4	-2.8065726311e+01	 4.6260959304e+00	-3.8287123265e-01	 1.6458910089e-02
	C4H10	OH	4	-2.8089520749e+01	 4.6260959615e+00	-3.8287123732e-01	 1.6458910321e-02
	C4H10	H2O	4	-2.7103044889e+01	 3.5105060322e+00	-1.5622089337e-01	 3.3307220756e-03
	C4H10	CO	4	-2.8816210181e+01	 4.7093202163e+00	-3.8871742696e-01	 1.6504886043e-02
	C4H10	CO2	4	-2.9684150173e+01	 4.7056035041e+00	-3.5787481778e-01	 1.3933774582e-02
	C4H10	N2	4	-2.8800806446e+01	 4.7072436005e+00	-3.8859776959e-01	 1.6505934745e-02
	C4H10	NO	4	-2.8823730137e+01	 4.7072435913e+00	-3.8859776821e-01	 1.6505934677e-02
	C4H10	AR	4	-2.9288563406e+01	 4.7923693161e+00	-3.9015925543e-01	 1.6182615410e-02
	C4H10	CH4	4	-2.9104115407e+01	 4.7966595745e+00	-3.8961690384e-01	 1.6114217663e-02
	C4H10	C2H2	4	-2.9603054942e+01	 4.7665332974e+00	-3.7204205185e-01	 1.4799211639e-02
	C4H10	C2H4	4	-2.9511181108e+01	 4.6193768915e+00	-3.4052394084e-01	 1.2935034689e-02
	C4H10	C2H6	4	-2.9671473614e+01	 4.6879329161e+00	-3.5415796563e-01	 1.3715617363e-02
	C4H10	C3H8	4	-2.9897937271e+01	 4.6545001632e+00	-3.4738121118e-01	 1.3324254490e-02
	C4H10	C4H10	4	-2.9688114504e+01	 4.4090907703e+00	-3.0239309018e-01	 1.0849039618e-02
	N-C7H16	H2	4	-2.6528206493e+01	 4.3635874797e+00	-3.5812267742e-01	 1.5785618594e-02
	N-C7H16	H	4	-2.7901942338e+01	 4.7887738821e+00	-3.7854486467e-01	 1.5226767356e-02
	N-C7H16	O2	4	-2.9590120666e+01	 4.7960923346e+00	-3.8970593953e-01	 1.6124715141e-02
	N-C7H16	O	4	-2.8789437903e+01	 4.7314565227e+00	-3.8986106071e-01	 1.6482655741e-02
	N-C7H16	OH	4	-2.8815667371e+01	 4.7314565267e+00	-3.8986106132e-01	 1.6482655771e-02
	N-C7H16	H2O	4	-2.5667775297e+01	 2.6537452045e+00	-2.4388107489e-02	-3.2140873505e-03
	N-C7H16	CO	4	-2.9478587536e+01	 4.7827603457e+00	-3.9074948352e-01	 1.6283403784e-02
	N-C7H16	CO2	4	-2.9785129399e+01	 4.5094102639e+00	-3.2012975942e-01	 1.1806287310e-02
	N-C7H16	N2	4	-2.9465920073e+01	 4.7816896349e+00	-3.9078441242e-01	 1.6292046939e-02
	N-C7H16	NO	4	-2.9492568074e+01	 4.7816896543e+00	-3.9078441532e-01	 1.6292047082e-02
	N-C7H16	AR	4	-2.9836786313e+01	 4.7974113219e+00	-3.8185398974e-01	 1.5458568587e-02
	N-C7H16	CH4	4	-2.9577092816e+01	 4.7928530272e+00	-3.7999350130e-01	 1.5326660059e-02
	N-C7H16	C2H2	4	-2.9816117947e+01	 4.6374143869e+00	-3.4401726588e-01	 1.3132558197e-02
	N-C7H16	C2H4	4	-2.9419028878e+01	 4.3513511510e+00	-2.9242830801e-01	 1.0318397078e-02
	N-C7H16	C2H6	4	-2.9701831075e+01	 4.4756460165e+00	-3.1408929514e-01	 1.1478198408e-02
	N-C7H16	C3H8	4	-2.9873927531e+01	 4.4139429769e+00	-3.0323758603e-01	 1.0894223694e-02
	N-C7H16	C4H10	4	-2.9297758458e+01	 4.0014816953e+00	-2.3430299944e-01	 7.2905961174e-03
	N-C7H16	N-C7H16	4	-2.8419849159e+01	 3.3736188480e+00	-1.3486808044e-01	 2.2611604186e-03
	I-C8H18	H2	4	-2.6559336118e+01	 4.3620620440e+00	-3.5796418989e-01	 1.5780476049e-02
	I-C8H18	H	4	-2.7939981292e+01	 4.7891931392e+00	-3.7868742587e-01	 1.5236503190e-02
	I-C8H18	O2	4	-2.9635634912e+01	 4.7958224650e+00	-3.8974604596e-01	 1.6129520329e-02
	I-C8H18	O	4	-2.8829947843e+01	 4.7306958253e+00	-3.8982634734e-01	 1.6483804038e-02
	I-C8H18	OH	4	-2.8856640584e+01	 4.7306958030e+00	-3.8982634399e-01	 1.6483803872e-02
	I-C8H18	H2O	4	-2.5732021944e+01	 2.6627807394e+00	-2.5760189921e-02	-3.1465685071e-03
	I-C8H18	CO	4	-2.9521630771e+01	 4.7823230844e+00	-3.9076430534e-01	 1.6286980277e-02
	I-C8H18	CO2	4	-2.9839394668e+01	 4.5117408697e+00	-3.2054980539e-01	 1.1829192373e-02
	I-C8H18	N2	4	-2.9509037185e+01	 4.7812421421e+00	-3.9079768196e-01	 1.6295547792e-02
	I-C8H18	NO	4	-2.9536440260e+01	 4.7812421404e+00	-3.9079768170e-01	 1.6295547779e-02
	I-C8H18	AR	4	-2.9886597035e+01	 4.7976728611e+00	-3.8197328452e-01	 1.5467189978e-02
	I-C8H18	CH4	4	-2.9616457050e+01	 4.7932053436e+00	-3.8012619819e-01	 1.5335923705e-02
	I-C8H18	C2H2	4	-2.9861528115e+01	 4.6390551206e+00	-3.4433784510e-01	 1.3150761061e-02
	I-C8H18	C2H4	4	-2.9468843583e+01	 4.3544194660e+00	-2.9295419454e-01	 1.0346291984e-02
	I-C8H18	C2H6	4	-2.9750134684e+01	 4.4781420283e+00	-3.1453311334e-01	 1.1502225285e-02
	I-C8H18	C3H8	4	-2.9925818322e+01	 4.4167294061e+00	-3.0372308367e-01	 1.0920215884e-02
	I-C8H18	C4H10	4	-2.9356954668e+01	 4.0059788076e+00	-2.3503281992e-01	 7.3280777728e-03
	I-C8H18	N-C7H16	4	-2.8490522250e+01	 3.3803536854e+00	-1.3591541256e-01	 2.3135165560e-03
	I-C8H18	I-C8H18	4	-2.8562963724e+01	 3.3870659325e+00	-1.3695954851e-01	 2.3657232347e-03
	C12H24	H2	4	-2.7679869175e+01	 4.6541709072e+00	-3.8503911345e-01	 1.6490809882e-02
	C12H24	H	4	-2.7832849815e+01	 4.4920338507e+00	-3.1701094938e-01	 1.1636593189e-02
	C12H24	O2	4	-3.0017105395e+01	 4.7119271270e+00	-3.5923404884e-01	 1.4014282614e-02
	C12H24	O	4	-2.9523757846e+01	 4.7970027541e+00	-3.8167120189e-01	 1.5445400193e-02
	C12H24	OH	4	-2.9551578848e+01	 4.7970027507e+00	-3.8167120138e-01	 1.5445400167e-02
	C12H24	H2O	4	-1.9729295940e+01	-1.8233147564e-01	 3.9686286163e-01	-2.3631216011e-02